2
R0102 1 2 2
C0200 2 0 1
C0100 1 0 3
V0200 2 0 SIN 0 1 0.4 0 0 0 3
.TRAN 5 0.5 TRAP 1
