3
R0100 1 0 1
R0203 2 3 2
L0300 3 0 1
L0200 2 0 3
V0301 3 1 DC 1
.TRAN 3 3E-3 TRAP 1