1
R0100 1 0 1
L0100 1 0 1
C0100 1 0 1
V0100 1 0 SIN 0 1 0.4 0 0 0 3
.TRAN 5 0.5 TRAP 1
