1
R0100 1 0 1
L0100 1 0 1
C0100 1 0 1
V0100 1 0 SIN 0 4 0.5 0 0 0 2
.TRAN 4 0.01 TRAP 1
