3
R0102 1 2 2
R0103 1 3 1
H0300 3 0 2 0 1
V0100 1 0 DC 2
.TRAN 3 3E-3 TRAP 1