2
L1 1 0 1E-5
L0002 0 2 1.54797097554421E-4
K0100 1 0 2 0 7.21311475409836E-1
V0100 1 0 PULSE 0 10000 0 0 0 1 2 1
.TRAN 0.5E-4 1E-8 TETA 0.5 1
